Version 4
SHEET 1 2156 680
WIRE -16 -512 -16 -560
WIRE 112 -512 112 -560
WIRE -16 -400 -16 -432
WIRE 112 -400 112 -432
WIRE 400 -144 400 -176
WIRE 480 -144 400 -144
WIRE 640 -144 544 -144
WIRE 832 -144 640 -144
WIRE 832 -128 832 -144
WIRE 976 -64 976 -112
WIRE 640 -48 640 -144
WIRE 80 16 -32 16
WIRE 192 16 144 16
WIRE 400 16 400 -144
WIRE 512 16 400 16
WIRE 928 16 768 16
WIRE -240 64 -240 32
WIRE 976 64 976 32
WIRE 976 64 896 64
WIRE 1056 64 976 64
WIRE 1104 64 1056 64
WIRE 1376 64 1184 64
WIRE 1456 64 1376 64
WIRE 1536 64 1456 64
WIRE 1648 64 1536 64
WIRE -272 96 -352 96
WIRE -96 96 -192 96
WIRE -32 96 -32 16
WIRE -32 96 -96 96
WIRE 64 96 -32 96
WIRE 192 96 192 16
WIRE 192 96 144 96
WIRE 512 96 192 96
WIRE 832 96 832 -64
WIRE 832 96 768 96
WIRE 896 96 896 64
WIRE 896 96 832 96
WIRE 976 96 976 64
WIRE 1456 112 1456 64
WIRE 1536 112 1536 64
WIRE 1648 112 1648 64
WIRE -480 128 -592 128
WIRE -304 128 -400 128
WIRE -272 128 -304 128
WIRE -32 128 -192 128
WIRE 192 128 192 96
WIRE 1056 160 1056 64
WIRE 1104 160 1056 160
WIRE 1248 160 1184 160
WIRE 1280 160 1248 160
WIRE 1376 160 1376 64
WIRE 1376 160 1344 160
WIRE -256 176 -256 160
WIRE -240 176 -240 160
WIRE -240 176 -256 176
WIRE -224 176 -224 160
WIRE -224 176 -240 176
WIRE 512 176 400 176
WIRE 928 176 768 176
WIRE -240 192 -240 176
WIRE 192 208 192 192
WIRE -304 256 -304 128
WIRE -272 256 -304 256
WIRE -96 256 -96 96
WIRE -96 256 -192 256
WIRE 640 272 640 240
WIRE 976 272 976 192
WIRE 1456 272 1456 176
WIRE 1536 272 1536 192
WIRE 1648 272 1648 192
WIRE -32 304 -32 128
WIRE 64 304 -32 304
WIRE 192 304 128 304
WIRE 400 304 400 176
WIRE 400 304 192 304
WIRE -32 384 -32 304
WIRE 48 384 -32 384
WIRE 192 384 192 304
WIRE 192 384 128 384
WIRE 192 416 192 384
WIRE 192 496 192 480
WIRE -352 624 -352 96
WIRE 1248 624 1248 160
WIRE 1248 624 -352 624
FLAG -240 192 0
FLAG -240 32 5V
FLAG 640 272 0
FLAG 1456 272 0
FLAG 1536 272 0
FLAG 976 272 0
FLAG 400 -176 5V
FLAG 192 208 0
FLAG 192 496 0
FLAG -592 128 ref
FLAG -16 -560 ref
FLAG 112 -560 5V
FLAG -16 -400 0
FLAG 112 -400 0
FLAG 976 -112 5V
FLAG 1648 272 0
SYMBOL Comparators\\LT1713 -240 112 R0
SYMATTR InstName U1
SYMBOL nmos 928 -64 R0
SYMATTR InstName M1
SYMATTR Value IRLR3802
SYMBOL nmos 928 96 R0
SYMATTR InstName M2
SYMATTR Value IRLR3802
SYMBOL ind 1088 80 R270
WINDOW 0 32 56 VTop 0
WINDOW 3 5 56 VBottom 0
SYMATTR InstName L1
SYMATTR Value 10µ
SYMATTR SpiceLine Ipk=2 Rser=0.033 Rpar=942 Cpar=0 mfg="Coilcraft" pn="MSS7341-103MX"
SYMBOL cap 1440 112 R0
SYMATTR InstName C1
SYMATTR Value 100µ
SYMBOL res 1200 144 R90
WINDOW 0 0 56 VBottom 0
WINDOW 3 32 56 VTop 0
SYMATTR InstName R1
SYMATTR Value 10k
SYMBOL cap 1344 144 R90
WINDOW 0 0 32 VBottom 0
WINDOW 3 32 32 VTop 0
SYMATTR InstName C2
SYMATTR Value 22n
SYMBOL res 1520 96 R0
SYMATTR InstName R2
SYMATTR Value 1k
SYMBOL schottky 480 -128 R270
WINDOW 0 32 32 VTop 0
WINDOW 3 0 32 VBottom 0
SYMATTR InstName D1
SYMATTR Value ZLLS1000
SYMATTR Description Diode
SYMATTR Type diode
SYMBOL cap 816 -128 R0
SYMATTR InstName C3
SYMATTR Value 100n
SYMBOL res 160 80 R90
WINDOW 0 0 56 VBottom 0
WINDOW 3 32 56 VTop 0
SYMATTR InstName R3
SYMATTR Value 1k
SYMBOL cap 176 128 R0
SYMATTR InstName C4
SYMATTR Value 10p
SYMBOL diode 144 0 R90
WINDOW 0 0 32 VBottom 0
WINDOW 3 32 32 VTop 0
SYMATTR InstName D2
SYMATTR Value 1N4148
SYMBOL diode 128 288 R90
WINDOW 0 0 32 VBottom 0
WINDOW 3 32 32 VTop 0
SYMATTR InstName D3
SYMATTR Value 1N4148
SYMBOL res 144 368 R90
WINDOW 0 0 56 VBottom 0
WINDOW 3 32 56 VTop 0
SYMATTR InstName R4
SYMATTR Value 1k
SYMBOL cap 176 416 R0
SYMATTR InstName C5
SYMATTR Value 10p
SYMBOL voltage -16 -528 R0
WINDOW 123 0 0 Left 0
WINDOW 39 0 0 Left 0
SYMATTR InstName V1
SYMATTR Value PULSE(0 3.3 10n 40u)
SYMBOL voltage 112 -528 R0
WINDOW 123 0 0 Left 0
WINDOW 39 0 0 Left 0
SYMATTR InstName V2
SYMATTR Value PULSE(0 5 0 100n)
SYMBOL PowerProducts\\LTC4444-5 640 96 R0
SYMATTR InstName U2
SYMBOL res -176 240 R90
WINDOW 0 0 56 VBottom 0
WINDOW 3 32 56 VTop 0
SYMATTR InstName R5
SYMATTR Value 1000k
SYMBOL res -384 112 R90
WINDOW 0 0 56 VBottom 0
WINDOW 3 32 56 VTop 0
SYMATTR InstName R6
SYMATTR Value 1k
SYMBOL current 1648 112 R0
WINDOW 123 0 0 Left 0
WINDOW 39 0 0 Left 0
SYMATTR InstName I1
SYMATTR Value PULSE(0 1 50u 10n 10n 30u 100u)
TEXT 634 -490 Left 0 !.tran 0.5m
